REMARK SMILES O=C1CCSCc2ccc(cc2)CSCCNC(=O)[C@@H]2CCCN2C(=O)[C@H](CNC(=O)c2ccc(Cl)s2)N1
REMARK SMILES IDX 5 1 6 2 7 3 8 4 12 5 9 6 11 7 10 8 13 9 14 10 15 11 16 12
REMARK SMILES IDX 17 13 18 14 19 16 4 18 3 19 2 20 1 21 38 22 27 24 28 25
REMARK SMILES IDX 29 26 30 27 31 29 32 30 33 31 37 32 34 33 35 34 36 35 25 36
REMARK SMILES IDX 26 37 24 38 23 39 20 40 22 41 21 42
REMARK H PARENT 17 15 38 23 29 28
REMARK Flexibility Score: 50.00
ROOT
ATOM      1  S   UNL     1      -9.959 -17.091 -23.440  1.00  0.00    -0.157 SA
ENDROOT
BRANCH   1   2
ATOM      2  C   UNL     1      -9.248 -18.478 -22.488  1.00  0.00     0.105 C 
BRANCH   2   3
ATOM      3  C   UNL     1      -7.961 -18.090 -21.808  1.00  0.00    -0.038 A 
ATOM      4  C   UNL     1      -6.761 -18.750 -22.093  1.00  0.00     0.005 A 
ATOM      5  C   UNL     1      -7.943 -17.043 -20.879  1.00  0.00     0.005 A 
ATOM      6  C   UNL     1      -5.563 -18.344 -21.495  1.00  0.00     0.005 A 
ATOM      7  C   UNL     1      -6.743 -16.616 -20.311  1.00  0.00     0.005 A 
ATOM      8  C   UNL     1      -5.529 -17.238 -20.636  1.00  0.00    -0.038 A 
BRANCH   8   9
ATOM      9  C   UNL     1      -4.278 -16.724 -19.967  1.00  0.00     0.105 C 
BRANCH   9  10
ATOM     10  S   UNL     1      -2.679 -17.053 -20.760  1.00  0.00    -0.155 SA
BRANCH  10  11
ATOM     11  C   UNL     1      -2.879 -16.270 -22.393  1.00  0.00     0.091 C 
BRANCH  11  12
ATOM     12  C   UNL     1      -3.420 -14.758 -22.419  1.00  0.00     0.126 C 
BRANCH  12  13
ATOM     13  N   UNL     1      -4.977 -14.383 -22.732  1.00  0.00    -0.353 N 
ATOM     14  C   UNL     1      -5.672 -13.260 -22.244  1.00  0.00     0.242 CG0
ATOM     15  H   UNL     1      -5.495 -15.077 -23.273  1.00  0.00     0.163 HD
ATOM     16  O   UNL     1      -5.070 -12.509 -21.455  1.00  0.00    -0.273 OA
ATOM     17  G   UNL     1      -7.357 -12.881 -22.510  1.00  0.00     0.000 G0
ENDBRANCH  12  13
ENDBRANCH  11  12
ENDBRANCH  10  11
ENDBRANCH   9  10
ENDBRANCH   8   9
ENDBRANCH   2   3
ENDBRANCH   1   2
BRANCH   1  18
ATOM     18  C   UNL     1      -8.938 -17.200 -24.945  1.00  0.00     0.079 C 
BRANCH  18  19
ATOM     19  C   UNL     1      -8.760 -15.829 -25.595  1.00  0.00     0.111 C 
BRANCH  19  20
ATOM     20  C   UNL     1      -7.472 -15.138 -25.215  1.00  0.00     0.221 C 
ATOM     21  O   UNL     1      -6.479 -15.753 -24.822  1.00  0.00    -0.275 OA
ATOM     22  N   UNL     1      -7.329 -13.790 -25.328  1.00  0.00    -0.343 N 
ATOM     23  H   UNL     1      -6.391 -13.489 -25.086  1.00  0.00     0.164 HD
BRANCH  22  24
ATOM     24  C   UNL     1      -8.298 -12.717 -25.563  1.00  0.00     0.190 C 
BRANCH  24  25
ATOM     25  C   UNL     1      -9.003 -12.678 -26.951  1.00  0.00     0.151 C 
BRANCH  25  26
ATOM     26  N   UNL     1      -9.642 -13.893 -27.419  1.00  0.00    -0.349 N 
ATOM     27  C   UNL     1     -10.823 -14.485 -27.028  1.00  0.00     0.261 C 
ATOM     28  H   UNL     1      -9.097 -14.501 -28.017  1.00  0.00     0.163 HD
ATOM     29  O   UNL     1     -11.000 -15.648 -27.392  1.00  0.00    -0.268 OA
BRANCH  27  30
ATOM     30  C   UNL     1     -11.773 -13.745 -26.228  1.00  0.00     0.093 A 
ATOM     31  C   UNL     1     -12.311 -12.485 -26.421  1.00  0.00     0.027 A 
ATOM     32  S   UNL     1     -12.445 -14.504 -24.840  1.00  0.00    -0.118 S 
ATOM     33  C   UNL     1     -13.237 -12.126 -25.395  1.00  0.00     0.033 A 
ATOM     34  C   UNL     1     -13.378 -13.139 -24.484  1.00  0.00     0.094 A 
ATOM     35  Cl  UNL     1     -14.392 -13.136 -23.096  1.00  0.00    -0.072 Cl
ENDBRANCH  27  30
ENDBRANCH  25  26
ENDBRANCH  24  25
BRANCH  24  36
ATOM     36  C   UNL     1      -9.209 -12.369 -24.382  1.00  0.00     0.247 C 
ATOM     37  O   UNL     1     -10.382 -12.038 -24.594  1.00  0.00    -0.272 OA
BRANCH  36  38
ATOM     38  N   UNL     1      -8.671 -12.253 -23.112  1.00  0.00    -0.329 N 
ATOM     39  C   UNL     1      -9.625 -11.936 -22.047  1.00  0.00     0.120 C 
ATOM     40  C   UNL     1      -7.339 -12.905 -22.472  1.00  0.00     0.174 CG0
ATOM     41  C   UNL     1      -8.920 -12.273 -20.743  1.00  0.00     0.024 C 
ATOM     42  C   UNL     1      -7.947 -13.381 -21.129  1.00  0.00     0.037 C 
ATOM     43  G   UNL     1      -5.646 -13.296 -22.290  1.00  0.00     0.000 G0
ENDBRANCH  36  38
ENDBRANCH  24  36
ENDBRANCH  22  24
ENDBRANCH  19  20
ENDBRANCH  18  19
ENDBRANCH   1  18
TORSDOF 3
